STAAD SPACE
START JOB INFORMATION
ENGINEER DATE 27-Feb-26
END JOB INFORMATION
INPUT WIDTH 79
UNIT METER KN
JOINT COORDINATES
1 0 0 0; 2 4.05 0 0; 3 8.1 0 0; 4 12.15 0 0; 5 16.2 0 0; 6 20.25 0 0;
7 24.3 0 0; 8 0 0 3.822; 9 0 0 7.645; 10 0 0 13.068; 11 0 0 17.704;
12 0 0 22.341; 13 4.05 0 3.822; 14 4.05 0 7.645; 15 4.05 0 13.068;
16 4.05 0 17.704; 17 4.05 0 22.341; 18 24.3 0 3.822; 19 24.3 0 7.645;
20 24.3 0 13.068; 21 24.3 0 17.704; 22 24.3 0 22.341; 23 20.25 0 3.822;
24 20.25 0 7.645; 25 20.25 0 13.068; 26 20.25 0 17.704; 27 20.25 0 22.341;
28 8.1 0 13.068; 30 8.1 0 22.341; 31 16.2 0 13.068; 32 16.2 0 17.704;
33 16.2 0 22.341; 34 10.8 0 13.068; 35 13.5 0 13.068; 42 0 2.5 0;
43 4.05 2.5 0; 44 8.1 2.5 0; 45 12.15 2.5 0; 46 16.2 2.5 0; 47 20.25 2.5 0;
48 24.3 2.5 0; 49 0 2.5 3.822; 50 0 2.5 7.645; 51 0 2.5 13.068;
52 0 2.5 17.704; 53 0 2.5 22.341; 54 4.05 2.5 3.822; 55 4.05 2.5 7.645;
56 4.05 2.5 13.068; 57 4.05 2.5 17.704; 58 4.05 2.5 22.341; 59 24.3 2.5 3.822;
60 24.3 2.5 7.645; 61 24.3 2.5 13.068; 62 24.3 2.5 17.704; 63 24.3 2.5 22.341;
64 20.25 2.5 3.822; 65 20.25 2.5 7.645; 66 20.25 2.5 13.068;
67 20.25 2.5 17.704; 68 20.25 2.5 22.341; 69 8.1 2.5 13.068; 70 8.1 2.5 17.704;
71 8.1 2.5 22.341; 72 16.2 2.5 13.068; 73 16.2 2.5 17.704; 74 16.2 2.5 22.341;
75 10.8 2.5 13.068; 76 13.5 2.5 13.068; 82 8.1 0 10.485; 83 16.2 0 10.485;
84 10.8 0 10.485; 85 13.5 0 10.485; 86 8.1 2.5 10.485; 87 16.2 2.5 10.485;
88 10.8 2.5 10.485; 89 13.5 2.5 10.485; 90 8.1 0 3.822; 91 8.1 0 7.645;
97 8.1 2.5 7.645; 98 12.15 0 3.822; 99 12.15 0 7.645; 101 12.15 2.5 7.645;
# ... 184 like lines cut
MEMBER INCIDENCES
1 1 42; 2 8 49; 3 9 50; 4 10 51; 5 11 52; 6 12 53; 7 17 58; 8 16 57; 9 15 56;
10 14 55; 11 13 54; 12 2 43; 13 3 44; 16 28 69; 18 30 71; 19 34 75; 22 4 45;
23 5 46; 25 35 76; 27 31 72; 28 32 73; 29 33 74; 30 27 68; 31 26 67; 32 25 66;
33 24 65; 34 23 64; 35 6 47; 36 7 48; 37 18 59; 38 19 60; 39 20 61; 40 21 62;
41 22 63; 42 42 43; 43 43 44; 44 44 45; 45 45 46; 46 46 47; 47 47 48; 48 42 49;
49 49 50; 50 50 51; 51 51 52; 52 52 53; 53 53 58; 54 58 57; 55 56 55; 56 55 54;
57 54 43; 58 56 57; 62 69 70; 63 70 71; 64 69 75; 65 75 76; 66 76 72; 70 54 49;
71 50 55; 72 51 56; 73 52 57; 74 58 71; 75 57 70; 76 56 69; 77 72 73; 78 86 82;
79 88 84; 80 89 85; 81 87 83; 82 87 72; 83 89 76; 84 88 75; 85 86 69; 86 86 88;
87 88 89; 88 89 87; 89 73 74; 90 47 64; 91 65 64; 92 65 66; 93 66 67; 94 67 68;
95 73 67; 96 74 68; 97 72 66; 98 64 59; 99 59 48; 100 65 60; 101 59 60;
102 66 61; 103 60 61; 104 61 62; 105 67 62; 106 68 63; 107 62 63; 108 90 145;
109 91 97; 114 44 145; 120 148 98; 121 101 99; 122 145 148; 123 97 101;
124 54 145; 125 55 97; 127 151 102; 128 105 103; 129 148 151; 130 101 105;
132 105 65; 133 151 64; 134 46 151; 135 45 148; 136 145 97; 137 148 101;
138 151 105; 139 42 106; 140 49 113; 141 50 114; 142 51 115; 143 52 116;
144 53 117; 145 58 122; 146 57 121; 147 56 120; 148 55 119; 149 54 118;
150 43 107; 151 44 108; 152 69 133; 153 71 135; 154 75 139; 155 45 109;
156 46 110; 157 76 140; 158 72 136; 159 73 137; 160 74 138; 161 68 132;
162 67 131; 163 66 130; 164 65 129; 165 64 128; 166 47 111; 167 48 112;
# ... 335 like lines cut
ELEMENT INCIDENCES SHELL
1978 42 53 71 44; 1979 48 63 74 46; 1980 106 117 135 108; 1981 112 127 138 110;
1982 154 159 167 161; 1983 177 182 189 194; 1984 199 204 212 206;
1985 222 227 234 239; 1986 244 249 257 251; 1987 267 272 279 284;
1988 289 294 302 296; 1989 312 317 324 329; 1990 334 339 347 341;
1991 357 362 369 374; 1992 379 384 392 386; 1993 402 407 414 419;
1994 424 429 437 431; 1995 447 452 459 464; 1996 469 474 482 476;
1997 492 497 504 509; 1998 514 519 527 521; 1999 537 542 549 554;
2000 559 564 572 566; 2001 582 587 594 599; 2002 604 609 617 611;
2003 627 632 639 644; 2004 649 654 662 656; 2005 672 677 684 689;
2006 694 699 707 701; 2007 717 722 729 734; 2008 739 744 752 746;
2009 762 767 774 779; 2010 784 789 797 791; 2011 807 812 819 824;
2014 69 97 105 72; 2015 97 44 46 105; 2020 133 147 153 136;
2021 147 108 110 153; 2022 169 171 192 191; 2023 171 161 194 192;
2024 214 216 237 236; 2025 216 206 239 237; 2026 259 261 282 281;
2027 261 251 284 282; 2028 304 306 327 326; 2029 306 296 329 327;
2030 349 351 372 371; 2031 351 341 374 372; 2032 394 396 417 416;
2033 396 386 419 417; 2034 439 441 462 461; 2035 441 431 464 462;
2036 484 486 507 506; 2037 486 476 509 507; 2038 529 531 552 551;
2039 531 521 554 552; 2040 574 576 597 596; 2041 576 566 599 597;
2042 619 621 642 641; 2043 621 611 644 642; 2044 664 666 687 686;
# ... 4 like lines cut
ELEMENT PROPERTY
1978 TO 2011 2014 2015 2020 TO 2051 THICKNESS 0.12
2052 TO 2056 THICKNESS 0.25
DEFINE MATERIAL START
ISOTROPIC CONCRETE
E 2.17185e+07
POISSON 0.17
DENSITY 23.5616
ALPHA 1e-05
DAMP 0.05
TYPE CONCRETE
STRENGTH FCU 30000
G 9.28139e+06
ISOTROPIC STEEL
E 2.05e+08
POISSON 0.3
DENSITY 76.8195
ALPHA 1.2e-05
DAMP 0.03
G 7.88462e+07
TYPE STEEL
STRENGTH FY 253200 FU 500000 RY 1.5 RT 1.2
END DEFINE MATERIAL
MEMBER PROPERTY AMERICAN
42 TO 58 62 TO 66 70 TO 77 82 TO 107 114 122 123 125 129 130 132 134 TO 138 -
173 TO 195 197 TO 202 207 TO 232 235 236 239 240 242 243 246 TO 249 251 252 -
254 256 258 260 262 264 266 268 TO 272 278 TO 291 299 TO 305 312 TO 317 324 -
325 TO 332 334 341 TO 359 369 371 373 375 377 379 381 383 TO 387 393 TO 406 -
414 TO 420 427 TO 432 439 TO 447 449 456 TO 474 484 486 488 490 492 494 496 -
498 TO 502 508 TO 521 529 TO 535 542 TO 547 554 TO 562 564 571 TO 589 599 -
601 603 605 607 609 611 613 TO 617 623 TO 636 644 TO 650 657 TO 662 -
669 TO 677 679 686 TO 704 714 716 718 720 722 724 726 728 TO 732 738 TO 751 -
759 TO 765 772 TO 777 784 TO 792 794 801 TO 819 829 831 833 835 837 839 841 -
843 TO 847 853 TO 866 874 TO 880 887 TO 892 899 TO 907 909 916 TO 934 944 -
946 948 950 952 954 956 958 TO 962 968 TO 981 989 TO 995 1002 TO 1007 1014 -
1015 TO 1022 1024 1031 TO 1049 1059 1061 1063 1065 1067 1069 1071 -
1073 TO 1077 1083 TO 1096 1104 TO 1110 1117 TO 1122 1129 TO 1137 1139 1146 -
1147 TO 1164 1174 1176 1178 1180 1182 1184 1186 1188 TO 1192 1198 TO 1211 -
1219 TO 1225 1232 TO 1237 1244 TO 1252 1254 1261 TO 1279 1289 -
1291 PRIS YD 0.4 ZD 0.35
1293 1295 1297 PRIS YD 0.4 ZD 0.35
124 133 196 241 250 292 333 407 448 522 563 637 678 752 793 867 908 982 1023 -
1097 1138 1212 1253 1299 1301 1303 TO 1307 1313 TO 1327 1334 TO 1340 1347 -
1348 TO 1352 1359 TO 1369 1376 TO 1394 1404 1406 1408 1410 1412 1414 1416 -
1418 TO 1422 1428 TO 1442 1449 TO 1455 1462 TO 1467 1474 TO 1484 -
1491 TO 1509 1519 1521 1523 1525 1527 1529 1531 1533 TO 1537 1543 TO 1557 -
1564 TO 1570 1577 TO 1582 1589 TO 1599 1606 TO 1624 1634 1636 1638 1640 -
1642 1644 1646 1648 TO 1652 1658 TO 1672 1679 TO 1685 1692 TO 1697 -
1704 TO 1714 1721 TO 1739 1749 1751 1753 1755 1757 1759 1761 1763 TO 1767 -
1773 TO 1787 1794 TO 1800 1807 TO 1812 1819 TO 1829 1836 TO 1854 1864 1866 -
1868 1870 1872 1874 1876 1878 TO 1882 1888 TO 1902 1909 TO 1915 -
1922 TO 1927 1934 TO 1944 1951 TO 1969 PRIS YD 0.4 ZD 0.35
1 TO 13 16 18 19 22 23 25 27 TO 41 78 TO 81 109 121 128 139 TO 172 -
203 TO 206 234 238 245 253 255 257 259 261 263 265 267 273 TO 277 -
293 TO 298 306 TO 311 318 TO 323 335 TO 340 360 TO 368 370 372 374 376 378 -
380 382 388 TO 392 408 TO 413 421 TO 426 433 TO 438 450 TO 455 475 TO 483 -
485 487 489 491 493 495 497 503 TO 507 523 TO 528 536 TO 541 548 TO 553 565 -
566 TO 570 590 TO 598 600 602 604 606 608 610 612 618 TO 622 638 TO 643 651 -
652 TO 656 663 TO 668 680 TO 685 705 TO 713 715 717 719 721 723 725 727 733 -
734 TO 737 753 TO 758 766 TO 771 778 TO 783 795 TO 800 820 TO 828 830 832 -
834 836 838 840 842 848 TO 852 868 TO 873 881 TO 886 893 TO 898 910 TO 915 -
935 TO 943 945 947 949 951 953 955 957 963 TO 967 983 TO 988 996 TO 1001 -
1008 TO 1013 1025 TO 1030 1050 TO 1058 1060 1062 1064 1066 1068 1070 1072 -
1078 TO 1082 1098 TO 1103 1111 TO 1116 1123 TO 1128 1140 TO 1145 -
1165 TO 1173 1175 1177 1179 1181 1183 1185 1187 1193 TO 1197 1213 TO 1218 -
1226 TO 1231 1238 TO 1243 1255 TO 1260 1280 TO 1288 1290 1292 1294 1296 -
1298 1300 1302 1308 TO 1312 1328 TO 1333 1341 TO 1346 1353 TO 1358 -
1370 TO 1375 1395 TO 1403 1405 1407 PRIS YD 0.7 ZD 0.5
108 120 127 233 237 244 1409 1411 1413 1415 1417 1423 TO 1427 1443 TO 1448 -
1456 TO 1461 1468 TO 1473 1485 TO 1490 1510 TO 1518 1520 1522 1524 1526 -
1528 1530 1532 1538 TO 1542 1558 TO 1563 1571 TO 1576 1583 TO 1588 -
1600 TO 1605 1625 TO 1633 1635 1637 1639 1641 1643 1645 1647 1653 TO 1657 -
1673 TO 1678 1686 TO 1691 1698 TO 1703 1715 TO 1720 1740 TO 1748 1750 1752 -
1754 1756 1758 1760 1762 1768 TO 1772 1788 TO 1793 1801 TO 1806 -
1813 TO 1818 1830 TO 1835 1855 TO 1863 1865 1867 1869 1871 1873 1875 1877 -
1883 TO 1887 1903 TO 1908 1916 TO 1921 1928 TO 1933 1945 TO 1950 -
1970 TO 1977 PRIS YD 0.7 ZD 0.5
CONSTANTS
MATERIAL CONCRETE ALL
SUPPORTS
1 TO 28 30 TO 35 82 TO 85 90 91 98 99 102 103 FIXED
* --- SEISMIC DEFINITION PER IS 1893:2016 ---
DEFINE 1893 LOAD
ZONE 0.24 RF 5 I 1.2 SS 2 ST 1 DM 0.05
SELFWEIGHT 1 
FLOOR WEIGHT
* 5.25 Slab DL + 1.5 Equivalent Wall DL
YRANGE 2.4 49.9 FLOAD 6.75
* Roof Slab DL (No partition)
YRANGE 49.9 50.1 FLOAD 3.75
* 25% of 2.0 LL
YRANGE 2.4 49.9 FLOAD 0.5
* --- WIND DEFINITION PER IS 875 PART 3 ---
* --- WIND DEFINITION PER IS 875 PART 3 ---
DEFINE WIND LOAD
TYPE 1
INT 1.09 1.24 1.35 1.48 1.72 HEIG  10  15  20  30  50
EXP 1 YR 0 50 
* --- PRIMARY LOAD CASES ---
LOAD 1 LOADTYPE Seismic-H  TITLE EQ X
1893 LOAD X 1
PERFORM ANALYSIS
CHANGE
LOAD 2 LOADTYPE Seismic-H  TITLE EQ Z
1893 LOAD Z 1
PERFORM ANALYSIS
CHANGE
LOAD 3 LOADTYPE Dead  TITLE DL
SELFWEIGHT Y -1 
FLOOR LOAD
* Slabs + Walls equivalent
YRANGE 2.4 49.9 FLOAD -6.75 GY
* Roof Slab DL
YRANGE 49.9 50.1 FLOAD -3.75 GY
LOAD 4 LOADTYPE Live  TITLE LL
FLOOR LOAD
* Typical Floor LL
YRANGE 2.4 49.9 FLOAD -2 GY
* Roof LL
YRANGE 49.9 50.1 FLOAD -1.5 GY
LOAD 5 LOADTYPE Wind  TITLE WL +X
WIND LOAD X 1 TYPE 1
LOAD 6 LOADTYPE Wind  TITLE WL -X
WIND LOAD X -1 TYPE 1
LOAD 7 LOADTYPE Wind  TITLE WL +Z
WIND LOAD Z 1 TYPE 1
LOAD 8 LOADTYPE Wind  TITLE WL -Z
WIND LOAD Z -1 TYPE 1
* --- LOAD COMBINATIONS PER IS 456 / IS 800 ---
LOAD COMB 101 1.5(DL+LL)
3 1.5 4 1.5 
LOAD COMB 102 1.2(DL+LL+EQX)
3 1.2 4 1.2 1 1.2 
LOAD COMB 103 1.2(DL+LL-EQX)
3 1.2 4 1.2 1 -1.2 
LOAD COMB 104 1.2(DL+LL+EQZ)
3 1.2 4 1.2 2 1.2 
LOAD COMB 105 1.2(DL+LL-EQZ)
3 1.2 4 1.2 2 -1.2 
LOAD COMB 106 1.5(DL+EQX)
3 1.5 1 1.5 
LOAD COMB 107 1.5(DL-EQX)
3 1.5 1 -1.5 
LOAD COMB 108 1.5(DL+EQZ)
3 1.5 2 1.5 
LOAD COMB 109 1.5(DL-EQZ)
3 1.5 2 -1.5 
LOAD COMB 110 0.9DL+1.5EQX
3 0.9 1 1.5 
LOAD COMB 111 0.9DL-1.5EQX
3 0.9 1 -1.5 
LOAD COMB 112 0.9DL+1.5EQZ
3 0.9 2 1.5 
LOAD COMB 113 0.9DL-1.5EQZ
3 0.9 2 -1.5 
LOAD COMB 114 1.2(DL+LL+WLX)
3 1.2 4 1.2 5 1.2 
LOAD COMB 115 1.2(DL+LL-WLX)
3 1.2 4 1.2 6 1.2 
LOAD COMB 116 1.2(DL+LL+WLZ)
3 1.2 4 1.2 7 1.2 
LOAD COMB 117 1.2(DL+LL-WLZ)
3 1.2 4 1.2 8 1.2 
LOAD COMB 118 1.5(DL+WLX)
3 1.5 5 1.5 
LOAD COMB 119 1.5(DL-WLX)
3 1.5 6 1.5 
LOAD COMB 120 1.5(DL+WLZ)
3 1.5 7 1.5 
LOAD COMB 121 1.5(DL-WLZ)
3 1.5 8 1.5 
LOAD COMB 122 0.9DL+1.5WLX
3 0.9 5 1.5 
LOAD COMB 123 0.9DL-1.5WLX
3 0.9 6 1.5 
LOAD COMB 124 0.9DL+1.5WLZ
3 0.9 7 1.5 
LOAD COMB 125 0.9DL-1.5WLZ
3 0.9 8 1.5 
LOAD COMB 126 1.0(DL+LL) SERVICEABILITY
3 1.0 4 1.0 
PERFORM ANALYSIS
* --- CONCRETE DESIGN AS PER IS 456 ---
LOAD LIST 101 TO 125
START CONCRETE DESIGN
CODE INDIAN
FC 30000 MEMB 1 TO 13 16 18 19 22 23 25 27 TO 58 62 TO 66 70 TO 109 114 120 -
121 TO 125 127 TO 130 132 TO 1977
FYMAIN 500000 MEMB 1 TO 13 16 18 19 22 23 25 27 TO 58 62 TO 66 70 TO 109 114 -
120 TO 125 127 TO 130 132 TO 1977
FYSEC 500000 ALL
MINMAIN 12 ALL
MAXMAIN 32 ALL
CLEAR 0.04 MEMB 1 TO 13 16 18 19 22 23 25 27 TO 58 62 TO 66 70 TO 109 114 -
120 TO 125 127 TO 130 132 TO 1977
TRACK 2 ALL
DESIGN COLUMN 1 TO 13 16 18 19 22 23 25 27 TO 41 78 TO 81 109 121 128 139 -
140 TO 172 203 TO 206 234 238 245 253 255 257 259 261 263 265 267 273 TO 277 -
293 TO 298 306 TO 311 318 TO 323 335 TO 340 360 TO 368 370 372 374 376 378 -
380 382 388 TO 392 408 TO 413 421 TO 426 433 TO 438 450 TO 455 475 TO 483 -
485 487 489 491 493 495 497 503 TO 507 523 TO 528 536 TO 541 548 TO 553 565 -
566 TO 570 590 TO 598 600 602 604 606 608 610 612 618 TO 622 638 TO 643 651 -
652 TO 656 663 TO 668 680 TO 685 705 TO 713 715 717 719 721 723 725 727 733 -
734 TO 737 753 TO 758 766 TO 771 778 TO 783 795 TO 800 820 TO 828 830 832 -
834 836 838 840 842 848 TO 852 868 TO 873 881 TO 886 893 TO 898 910 TO 915 -
935 TO 943 945 947 949 951 953 955 957 963 TO 967 983 TO 988 996 TO 1001 -
1008 TO 1013 1025 TO 1030 1050 TO 1058 1060 1062 1064 1066 1068 1070 1072 -
1078 TO 1082 1098 TO 1103 1111 TO 1116 1123 TO 1128 1140 TO 1145 -
1165 TO 1173 1175 1177 1179 1181 1183 1185 1187 1193 TO 1197 1213 TO 1218 -
1226 TO 1231 1238 TO 1243 1255 TO 1260 1280 TO 1288 1290 1292 1294 1296 -
1298 1300 1302 1308 TO 1312 1328 TO 1333 1341 TO 1346 1353 TO 1358 -
1370 TO 1375 1395 TO 1403 1405 1407
DESIGN COLUMN 1409 1411 1413 1415 1417 1423 TO 1427 1443 TO 1448 -
1456 TO 1461 1468 TO 1473 1485 TO 1490 1510 TO 1518 1520 1522 1524 1526 -
1528 1530 1532 1538 TO 1542 1558 TO 1563 1571 TO 1576 1583 TO 1588 -
1600 TO 1605 1625 TO 1633 1635 1637 1639 1641 1643 1645 1647 1653 TO 1657 -
1673 TO 1678 1686 TO 1691 1698 TO 1703 1715 TO 1720 1740 TO 1748 1750 1752 -
1754 1756 1758 1760 1762 1768 TO 1772 1788 TO 1793 1801 TO 1806 -
1813 TO 1818 1830 TO 1835 1855 TO 1863 1865 1867 1869 1871 1873 1875 1877 -
1883 TO 1887 1903 TO 1908 1916 TO 1921 1928 TO 1933 1945 TO 1950 -
1970 TO 1977
DESIGN BEAM 42 TO 58 62 TO 66 70 TO 77 82 TO 107 114 122 123 125 129 130 132 -
134 TO 138 173 TO 202 207 TO 232 235 236 239 240 242 243 246 TO 249 251 252 -
254 256 258 260 262 264 266 268 TO 272 278 TO 291 299 TO 305 312 TO 317 324 -
325 TO 332 334 341 TO 359 369 371 373 375 377 379 381 383 TO 387 393 TO 406 -
414 TO 420 427 TO 432 439 TO 447 449 456 TO 474 484 486 488 490 492 494 496 -
498 TO 502 508 TO 521 529 TO 535 542 TO 547 554 TO 562 564 571 TO 589 599 -
601 603 605 607 609 611 613 TO 617 623 TO 636 644 TO 650 657 TO 662 -
669 TO 677 679 686 TO 704 714 716 718 720 722 724 726 728 TO 732 738 TO 751 -
759 TO 765 772 TO 777 784 TO 792 794 801 TO 819 829 831 833 835 837 839 841 -
843 TO 847 853 TO 866 874 TO 880 887 TO 892 899 TO 907 909 916 TO 934 944 -
946 948 950 952 954 956 958 TO 962 968 TO 981 989 TO 995 1002 TO 1007 1014 -
1015 TO 1022 1024 1031 TO 1049 1059 1061 1063 1065 1067 1069 1071 -
1073 TO 1077 1083 TO 1096 1104 TO 1110 1117 TO 1122 1129 TO 1137 1139 1146 -
1147 TO 1164 1174 1176 1178 1180 1182 1184 1186 1188 TO 1192 1198 TO 1211 -
1219 TO 1225 1232 TO 1237 1244 TO 1252 1254 1261 TO 1279 1289 1291 1293 -
1295 1297
DESIGN BEAM 1299 1301 1303 TO 1307 1313 TO 1326 1334 TO 1340 1347 TO 1352 -
1359 TO 1367 1369 1376 TO 1394 1404 1406 1408 1410 1412 1414 1416 -
1418 TO 1422 1428 TO 1441 1449 TO 1455 1462 TO 1467 1474 TO 1482 1484 1491 -
1492 TO 1509 1519 1521 1523 1525 1527 1529 1531 1533 TO 1537 1543 TO 1556 -
1564 TO 1570 1577 TO 1582 1589 TO 1597 1599 1606 TO 1624 1634 1636 1638 -
1640 1642 1644 1646 1648 TO 1652 1658 TO 1671 1679 TO 1685 1692 TO 1697 -
1704 TO 1712 1714 1721 TO 1739 1749 1751 1753 1755 1757 1759 1761 -
1763 TO 1767 1773 TO 1786 1794 TO 1800 1807 TO 1812 1819 TO 1827 1829 1836 -
1837 TO 1854 1864 1866 1868 1870 1872 1874 1876 1878 TO 1882 1888 TO 1901 -
1909 TO 1915 1922 TO 1927 1934 TO 1942 1944 1951 TO 1969
END CONCRETE DESIGN
PERFORM ANALYSIS
PARAMETER 2
CODE IS800 LSD
FINISH
